135
From CSD 1405183: Bucky-catcher structure
C      10.898642   16.904156    2.426003
C      11.795715   16.181969    1.604170
C      13.103532   16.494674    2.034075
C      13.019983   17.399820    3.106559
C      11.663870   17.657660    3.361768
C       9.625114   16.462650    2.699441
C       9.198190   15.360885    1.901913
H       8.282524   15.105401    1.929257
C      10.061697   14.647882    1.089195
H       9.726532   13.916277    0.583334
C      11.452581   14.989078    0.995011
C      12.572050   14.176236    0.621312
H      12.426201   13.426499    0.056207
C      13.861516   14.442552    1.054255
H      14.565651   13.855055    0.811199
C      14.152491   15.600358    1.870012
C      15.245398   15.816991    2.767800
H      16.045881   15.324388    2.634119
C      15.186961   16.716957    3.826613
H      15.946877   16.829041    4.385642
C      13.999639   17.480351    4.089417
C      13.572473   18.075148    5.315331
H      14.215516   18.288955    5.980697
C      12.222397   18.348293    5.550791
H      11.974646   18.764604    6.368067
C      11.202174   18.027112    4.610469
C       9.786176   17.765741    4.861120
C       9.005011   16.994105    3.913202
C       7.660248   16.669628    4.235251
H       7.135527   16.155597    3.632168
C       7.122971   17.094887    5.412553
C       7.890855   17.849803    6.337685
C       9.196258   18.162743    6.077919
H       9.704800   18.646869    6.715941
C       5.757924   16.879196    6.052094
H       5.008150   16.617118    5.444454
C       5.621008   18.253870    6.802530
H       5.590100   19.028331    6.187294
H       4.853607   18.279536    7.426880
C       6.986055   18.108585    7.527141
H       7.251434   18.851728    8.140857
C       6.777423   16.730379    8.163643
C       6.015092   15.979465    7.259779
C       5.692002   14.673078    7.521064
H       5.208573   14.161166    6.881523
C       6.081980   14.090760    8.751535
C       6.868458   14.863337    9.688820
C       7.214006   16.198452    9.343984
H       7.746454   16.718370    9.931876
C       6.044794   12.286118   10.340514
C       6.827649   13.050218   11.251974
C       7.455962   12.161319   12.142166
C       7.055600   10.856580   11.812522
C       6.193541   10.925808   10.680792
C       5.756958   12.693481    9.064470
C       5.419137   11.632218    8.154529
H       5.087836   11.851205    7.291680
C       5.565228   10.293336    8.502403
H       5.322065    9.623659    7.873495
C       6.075461    9.894214    9.786042
C       6.729853    8.667651   10.161260
H       6.589798    7.888245    9.637170
C       7.556656    8.599835   11.265646
H       7.949291    7.765801   11.493511
C       7.843526    9.754816   12.087479
C       8.995835   10.010065   12.918426
H       9.509207    9.277518   13.237437
C       9.368911   11.291964   13.257186
H      10.117719   11.417940   13.826848
C       8.657049   12.450476   12.772593
C       9.117538   13.791242   12.603973
H       9.861757   14.095234   13.108314
C       8.500815   14.660127   11.718337
H       8.840327   15.543375   11.631749
C       7.364202   14.271601   10.923848
C      11.651072   15.210656    7.683608
C      12.853608   14.933743    8.355050
C      14.048416   14.628103    7.656264
C      14.048899   14.617271    6.273883
C      12.839119   14.907606    5.569021
C      11.667975   15.182399    6.204004
C      10.405072   14.666955    8.116551
C      10.359192   13.860706    9.225494
C      11.617266   13.555301    9.980487
C      12.827046   14.069333    9.542986
C      13.981770   13.235769    9.559696
C      14.764625   13.570136    8.364165
C      15.415153   12.578807    7.706394
C      15.439784   12.590581    6.229829
C      14.784667   13.569194    5.565982
C      13.981287   13.221640    4.370451
C      12.800484   14.032364    4.365893
C      11.617266   13.544705    3.939026
C      10.359192   13.840927    4.683385
C      10.417145   14.650708    5.778656
C       9.621250   14.323169    6.946844
C      13.897496   11.886290    9.983525
C      14.608151   10.866941    9.248281
C      15.362271   11.234274    8.125666
C      12.632419   11.356718   10.428622
C      15.378691   11.222500    5.796886
C      13.919711   11.906776    3.949660
C      11.509328   12.190046    3.500006
C       9.534078   12.656512    4.662118
C       8.835497   13.179256    6.946844
C      12.496228    8.336344    7.683608
C      11.293692    8.613257    8.355050
C      10.098884    8.918897    7.656264
C      10.098401    8.929729    6.273883
C      11.308181    8.639394    5.569021
C      12.479325    8.364601    6.204004
C      13.742228    8.880045    8.116551
C      13.788108    9.686294    9.225494
C      12.530034    9.991699    9.980487
C      11.320254    9.477667    9.542986
C      10.165530   10.311231    9.559696
C       9.382675    9.976864    8.364165
C       8.732147   10.968193    7.706394
C       8.707516   10.956419    6.229829
C       9.362633    9.977806    5.565982
C      10.166013   10.325360    4.370451
C      11.346816    9.514636    4.365893
C      12.530034   10.002295    3.939026
C      13.788108    9.706073    4.683385
C      13.730155    8.896292    5.778656
C      14.526050    9.223831    6.946844
C      10.249804   11.660710    9.983525
C       9.539149   12.680060    9.248281
C       8.785029   12.312726    8.125666
C      11.514881   12.190282   10.428622
C       8.768609   12.324500    5.796886
C      10.227589   11.640224    3.949660
C      12.637972   11.356954    3.500006
C      14.613222   10.890488    4.662118
C      15.311803   10.367744    6.946844
